LAMMPS (29 Oct 2020)
# 3d metal shear simulation

units		metal
boundary	s s p

atom_style	atomic
lattice		fcc 3.52
Lattice spacing in x,y,z = 3.5200000 3.5200000 3.5200000
region		box block 0 16.0 0 10.0 0 2.828427
create_box	3 box
Created orthogonal box = (0.0000000 0.0000000 0.0000000) to (56.320000 35.200000 9.9560630)

lattice		fcc 3.52 orient	x 1 0 0 orient y 0 1 1 orient z 0 -1 1 		origin 0.5 0 0
Lattice spacing in x,y,z = 3.5200000 4.9780317 4.9780317
create_atoms	1 box
Created 1912 atoms

pair_style	eam
pair_coeff	* * Ni_u3.eam
Reading eam potential file Ni_u3.eam with DATE: 2007-06-11

neighbor	0.3 bin
neigh_modify	delay 5

region		lower block INF INF INF 0.9 INF INF
region		upper block INF INF 6.1 INF INF INF
group		lower region lower
264 atoms in group lower
group		upper region upper
264 atoms in group upper
group		boundary union lower upper
528 atoms in group boundary
group		mobile subtract all boundary
1384 atoms in group mobile

set		group lower type 2
Setting atom values ...
  264 settings made for type
set		group upper type 3
Setting atom values ...
  264 settings made for type

# void

region		void cylinder z 8 3.535534 3.0 INF INF
delete_atoms	region void
Deleted 312 atoms, new total = 1600

# temp controllers

compute		new3d mobile temp
compute		new2d mobile temp/partial 0 1 1

# equilibrate

velocity	mobile create 300.0 5812775 temp new3d
fix		1 all nve
fix		2 boundary setforce 0.0 0.0 0.0

fix		3 mobile temp/rescale 10 300.0 300.0 10.0 1.0
fix_modify	3 temp new3d

thermo		25
thermo_modify	temp new3d

timestep	0.001
run		100
  update every 1 steps, delay 5 steps, check yes
Step Temp E_pair E_mol TotEng Press Volume
0          300    -6865.537            0   -6824.0057   -10404.624     19547.02
Loop time of 0.0467131 on 8 procs for 100 steps with 1600 atoms

# shear

velocity	upper set 1.0 0 0
velocity	mobile ramp vx 0.0 1.0 y 1.4 8.6 sum yes

unfix		3
fix		3 mobile temp/rescale 10 300.0 300.0 10.0 1.0
fix_modify	3 temp new2d

dump		1 all atom 100 dump.shear.void

#dump		2 all image 100 image.*.jpg type type #		axes yes 0.8 0.02 view 0 0 zoom 1.5 up 0 1 0 adiam 2.0
#dump_modify	2 pad 4

#dump		3 all movie 100 movie.mpg type type #		axes yes 0.8 0.02 view 0 0 zoom 1.5 up 0 1 0 adiam 2.0
#dump_modify	3 pad 4

# Делаем расчет RDF каждые 50 шагов
compute         myRDF all rdf 50
# # Усреднеяем RDF и выводим его каждые 50 шагов в файл tmp.rdf
fix             rdf all ave/time 50 1 50 c_myRDF[*] file tmp.rdf mode vector
#
thermo		100
thermo_modify	temp new2d

reset_timestep	0
run		3000
  update every 1 steps, delay 5 steps, check yes
Step Temp E_pair E_mol TotEng Press Volume
0    300.82043   -6809.6014            0   -6781.8382   -4382.0931    19795.881
Averages over the last 16 of 31 rows, steps 1500 to 3000:
Temp E_pair E_mol TotEng Press Volume
299.465 -6784.14 0 -6756.5 -17172.8 22288.7
Loop time of 1.502 on 8 procs for 3000 steps with 1600 atoms
